12
Only for test.
C 7.512907 12.696144 1.222267
H 7.293064 13.280151 2.138578
H 6.574419 12.213078 0.885761
H 7.898877 13.370358 0.431661
H 8.280431 11.922762 1.429509
C 7.574584 15.462496 1.102391
H 7.385296 15.849984 2.124015
H 7.986105 16.278961 0.474207
H 8.302545 14.626973 1.150956
H 6.625172 15.092911 0.663442
O 7.183741 9.090479 0.638752
O 6.104619 9.359606 0.936382
